<?xml version="1.0" encoding="UTF-8"?>

<!-- generated on 2026-04-05 23:08:26 by Eclipse SUMO netconvert Version 1.22.0
<netconvertConfiguration xmlns:xsi="http://www.w3.org/2001/XMLSchema-instance" xsi:noNamespaceSchemaLocation="http://sumo.dlr.de/xsd/netconvertConfiguration.xsd">

    <input>
        <osm-files value="SimulationConfig\public\bbox_1775401703530\map.osm"/>
    </input>

    <output>
        <output-file value="SimulationConfig\public\bbox_1775401703530\map.net.xml"/>
    </output>

    <projection>
        <proj.utm value="true"/>
    </projection>

</netconvertConfiguration>
-->

<net version="1.20" junctionCornerDetail="5" limitTurnSpeed="5.50" xmlns:xsi="http://www.w3.org/2001/XMLSchema-instance" xsi:noNamespaceSchemaLocation="http://sumo.dlr.de/xsd/net_file.xsd">

    <location netOffset="-404000.19,-3369342.55" convBoundary="0.00,0.00,4135.30,3937.57" origBoundary="103.999854,30.452512,104.042969,30.488066" projParameter="+proj=utm +zone=48 +ellps=WGS84 +datum=WGS84 +units=m +no_defs"/>

    <type id="highway.cycleway" priority="1" numLanes="1" speed="5.56" allow="bicycle" oneway="0" width="2.00"/>
    <type id="highway.footway" priority="1" numLanes="1" speed="2.78" allow="pedestrian" oneway="1" width="2.00"/>
    <type id="highway.primary" priority="12" numLanes="2" speed="27.78" disallow="tram rail_urban rail rail_electric rail_fast ship container cable_car subway aircraft wheelchair scooter drone" oneway="0"/>
    <type id="highway.residential" priority="3" numLanes="1" speed="13.89" disallow="tram rail_urban rail rail_electric rail_fast ship container cable_car subway aircraft wheelchair scooter drone" oneway="0"/>
    <type id="highway.secondary" priority="11" numLanes="1" speed="27.78" disallow="tram rail_urban rail rail_electric rail_fast ship container cable_car subway aircraft wheelchair scooter drone" oneway="0"/>
    <type id="highway.secondary_link" priority="6" numLanes="1" speed="22.22" disallow="tram rail_urban rail rail_electric rail_fast ship container cable_car subway aircraft wheelchair scooter drone" oneway="0"/>
    <type id="highway.service" priority="1" numLanes="1" speed="5.56" allow="pedestrian delivery bicycle" oneway="0"/>
    <type id="highway.tertiary" priority="10" numLanes="1" speed="22.22" disallow="tram rail_urban rail rail_electric rail_fast ship container cable_car subway aircraft wheelchair scooter drone" oneway="0"/>
    <type id="highway.trunk" priority="13" numLanes="2" speed="27.78" disallow="pedestrian bicycle tram rail_urban rail rail_electric rail_fast ship container cable_car subway aircraft wheelchair scooter drone" oneway="0"/>
    <type id="highway.unclassified" priority="4" numLanes="1" speed="13.89" disallow="tram rail_urban rail rail_electric rail_fast ship container cable_car subway aircraft wheelchair scooter drone" oneway="0"/>

    <edge id=":10893313812_0" function="internal">
        <lane id=":10893313812_0_0" index="0" disallow="tram rail_urban rail rail_electric rail_fast ship container cable_car subway aircraft wheelchair scooter drone" speed="7.98" length="10.80" shape="2302.91,2114.39 2301.44,2112.45 2299.38,2111.23 2296.72,2110.73 2293.46,2110.95"/>
    </edge>
    <edge id=":10893313812_1" function="internal">
        <lane id=":10893313812_1_0" index="0" disallow="tram rail_urban rail rail_electric rail_fast ship container cable_car subway aircraft wheelchair scooter drone" speed="27.78" length="14.71" shape="2302.91,2114.39 2296.24,2101.28"/>
        <lane id=":10893313812_1_1" index="1" disallow="tram rail_urban rail rail_electric rail_fast ship container cable_car subway aircraft wheelchair scooter drone" speed="27.78" length="14.71" shape="2305.76,2112.94 2299.10,2099.83"/>
    </edge>
    <edge id=":10893313812_3" function="internal">
        <lane id=":10893313812_3_0" index="0" disallow="tram rail_urban rail rail_electric rail_fast ship container cable_car subway aircraft wheelchair scooter drone" speed="5.95" length="9.09" shape="2292.94,2107.80 2295.44,2107.01 2296.82,2105.66 2297.09,2103.75 2296.24,2101.28"/>
    </edge>
    <edge id=":10893313812_4" function="internal">
        <lane id=":10893313812_4_0" index="0" disallow="tram rail_urban rail rail_electric rail_fast ship container cable_car subway aircraft wheelchair scooter drone" speed="3.65" length="4.67" shape="2292.94,2107.80 2294.26,2108.39 2294.78,2109.12 2294.52,2109.97 2293.46,2110.95"/>
    </edge>
    <edge id=":10893313813_0" function="internal">
        <lane id=":10893313813_0_0" index="0" disallow="tram rail_urban rail rail_electric rail_fast ship container cable_car subway aircraft wheelchair scooter drone" speed="9.01" length="11.90" shape="1509.62,2453.81 1511.92,2456.74 1514.28,2458.74 1516.68,2459.81 1519.13,2459.94"/>
    </edge>
    <edge id=":10893313813_1" function="internal">
        <lane id=":10893313813_1_0" index="0" disallow="tram rail_urban rail rail_electric rail_fast ship container cable_car subway aircraft wheelchair scooter drone" speed="3.65" length="4.67" shape="1509.62,2453.81 1509.63,2455.25 1509.18,2456.03 1508.30,2456.14 1506.96,2455.59"/>
    </edge>
    <edge id=":10893313813_2" function="internal">
        <lane id=":10893313813_2_0" index="0" disallow="tram rail_urban rail rail_electric rail_fast ship container cable_car subway aircraft wheelchair scooter drone" speed="5.73" length="9.19" shape="1504.09,2461.89 1506.72,2461.19 1508.08,2459.90 1508.16,2458.04 1506.96,2455.59"/>
    </edge>
    <edge id=":10893313813_3" function="internal">
        <lane id=":10893313813_3_0" index="0" disallow="tram rail_urban rail rail_electric rail_fast ship container cable_car subway aircraft wheelchair scooter drone" speed="27.78" length="15.16" shape="1504.09,2461.89 1519.13,2459.94"/>
    </edge>
    <edge id=":10893313824_0" function="internal">
        <lane id=":10893313824_0_0" index="0" disallow="tram rail_urban rail rail_electric rail_fast ship container cable_car subway aircraft wheelchair scooter drone" speed="3.65" length="4.67" shape="1021.53,1231.60 1021.56,1230.16 1022.02,1229.39 1022.90,1229.29 1024.23,1229.87"/>
    </edge>
    <edge id=":12087538847_0" function="internal">
        <lane id=":12087538847_0_0" index="0" disallow="tram rail_urban rail rail_electric rail_fast ship container cable_car subway aircraft wheelchair scooter drone" speed="6.09" length="9.06" shape="939.01,2830.67 936.53,2830.00 934.60,2830.37 933.22,2831.76 932.38,2834.19"/>
    </edge>
    <edge id=":12087538847_1" function="internal">
        <lane id=":12087538847_1_0" index="0" disallow="tram rail_urban rail rail_electric rail_fast ship container cable_car subway aircraft wheelchair scooter drone" speed="13.89" length="15.51" shape="939.01,2830.67 935.44,2829.27 931.71,2828.05 927.92,2827.04 924.17,2826.27"/>
    </edge>
    <edge id=":12087538847_2" function="internal">
        <lane id=":12087538847_2_0" index="0" disallow="tram rail_urban rail rail_electric rail_fast ship container cable_car subway aircraft wheelchair scooter drone" speed="10.27" length="15.77" shape="939.01,2830.67 935.94,2828.59 933.20,2825.43 931.20,2821.75 930.35,2818.15"/>
    </edge>
    <edge id=":12087538847_3" function="internal">
        <lane id=":12087538847_3_0" index="0" disallow="tram rail_urban rail rail_electric rail_fast ship container cable_car subway aircraft wheelchair scooter drone" speed="3.65" length="4.67" shape="939.01,2830.67 938.22,2829.46 938.17,2828.57 938.85,2827.99 940.27,2827.73"/>
    </edge>
    <edge id=":12087538847_4" function="internal">
        <lane id=":12087538847_4_0" index="0" disallow="tram rail_urban rail rail_electric rail_fast ship container cable_car subway aircraft wheelchair scooter drone" speed="9.19" length="12.51" shape="933.54,2818.01 934.08,2821.23 935.38,2823.92 937.44,2826.09 940.27,2827.73"/>
    </edge>
    <edge id=":12087538847_5" function="internal">
        <lane id=":12087538847_5_0" index="0" disallow="tram rail_urban rail rail_electric rail_fast ship container cable_car subway aircraft wheelchair scooter drone" speed="13.89" length="16.25" shape="933.54,2818.01 933.59,2821.95 933.40,2826.13 932.99,2830.29 932.38,2834.19"/>
    </edge>
    <edge id=":12087538847_6" function="internal">
        <lane id=":12087538847_6_0" index="0" disallow="tram rail_urban rail rail_electric rail_fast ship container cable_car subway aircraft wheelchair scooter drone" speed="7.67" length="4.58" shape="933.54,2818.01 933.12,2822.26 932.96,2822.52"/>
    </edge>
    <edge id=":12087538847_7" function="internal">
        <lane id=":12087538847_7_0" index="0" disallow="tram rail_urban rail rail_electric rail_fast ship container cable_car subway aircraft wheelchair scooter drone" speed="3.65" length="1.44" shape="933.54,2818.01 932.80,2819.24"/>
    </edge>
    <edge id=":12087538847_16" function="internal">
        <lane id=":12087538847_16_0" index="0" disallow="tram rail_urban rail rail_electric rail_fast ship container cable_car subway aircraft wheelchair scooter drone" speed="7.67" length="10.50" shape="932.96,2822.52 931.42,2825.05 928.44,2826.39 924.17,2826.27"/>
    </edge>
    <edge id=":12087538847_17" function="internal">
        <lane id=":12087538847_17_0" index="0" disallow="tram rail_urban rail rail_electric rail_fast ship container cable_car subway aircraft wheelchair scooter drone" speed="3.65" length="3.23" shape="932.80,2819.24 932.02,2819.68 931.20,2819.31 930.35,2818.15"/>
    </edge>
    <edge id=":12087538847_8" function="internal">
        <lane id=":12087538847_8_0" index="0" disallow="tram rail_urban rail rail_electric rail_fast ship container cable_car subway aircraft wheelchair scooter drone" speed="6.09" length="9.06" shape="924.71,2823.12 927.28,2823.19 929.07,2822.38 930.09,2820.70 930.35,2818.15"/>
    </edge>
    <edge id=":12087538847_9" function="internal">
        <lane id=":12087538847_9_0" index="0" disallow="tram rail_urban rail rail_electric rail_fast ship container cable_car subway aircraft wheelchair scooter drone" speed="13.89" length="16.26" shape="924.71,2823.12 928.58,2823.92 932.62,2825.00 936.59,2826.29 940.27,2827.73"/>
    </edge>
    <edge id=":12087538847_10" function="internal">
        <lane id=":12087538847_10_0" index="0" disallow="tram rail_urban rail rail_electric rail_fast ship container cable_car subway aircraft wheelchair scooter drone" speed="8.27" length="15.42" shape="924.71,2823.12 928.74,2824.42 931.36,2826.70 932.58,2829.96 932.38,2834.19"/>
    </edge>
    <edge id=":12087538847_11" function="internal">
        <lane id=":12087538847_11_0" index="0" disallow="tram rail_urban rail rail_electric rail_fast ship container cable_car subway aircraft wheelchair scooter drone" speed="3.65" length="4.67" shape="924.71,2823.12 925.76,2824.11 926.02,2824.97 925.49,2825.69 924.17,2826.27"/>
    </edge>
    <edge id=":12087538847_12" function="internal">
        <lane id=":12087538847_12_0" index="0" disallow="tram rail_urban rail rail_electric rail_fast ship container cable_car subway aircraft wheelchair scooter drone" speed="6.83" length="10.20" shape="929.24,2833.59 929.37,2830.79 928.56,2828.64 926.83,2827.13 924.17,2826.27"/>
    </edge>
    <edge id=":12087538847_13" function="internal">
        <lane id=":12087538847_13_0" index="0" disallow="tram rail_urban rail rail_electric rail_fast ship container cable_car subway aircraft wheelchair scooter drone" speed="13.89" length="15.51" shape="929.24,2833.59 929.84,2829.81 930.23,2825.90 930.40,2821.98 930.35,2818.15"/>
    </edge>
    <edge id=":12087538847_14" function="internal">
        <lane id=":12087538847_14_0" index="0" disallow="tram rail_urban rail rail_electric rail_fast ship container cable_car subway aircraft wheelchair scooter drone" speed="7.67" length="4.05" shape="929.24,2833.59 930.55,2829.76"/>
    </edge>
    <edge id=":12087538847_15" function="internal">
        <lane id=":12087538847_15_0" index="0" disallow="tram rail_urban rail rail_electric rail_fast ship container cable_car subway aircraft wheelchair scooter drone" speed="3.65" length="1.44" shape="929.24,2833.59 930.25,2832.56"/>
    </edge>
    <edge id=":12087538847_18" function="internal">
        <lane id=":12087538847_18_0" index="0" disallow="tram rail_urban rail rail_electric rail_fast ship container cable_car subway aircraft wheelchair scooter drone" speed="7.67" length="11.04" shape="930.55,2829.76 930.63,2829.55 932.93,2827.22 936.14,2826.62 940.27,2827.73"/>
    </edge>
    <edge id=":12087538847_19" function="internal">
        <lane id=":12087538847_19_0" index="0" disallow="tram rail_urban rail rail_electric rail_fast ship container cable_car subway aircraft wheelchair scooter drone" speed="3.65" length="3.23" shape="930.25,2832.56 931.11,2832.32 931.82,2832.86 932.38,2834.19"/>
    </edge>
    <edge id=":12087538855_0" function="internal">
        <lane id=":12087538855_0_0" index="0" disallow="tram rail_urban rail rail_electric rail_fast ship container cable_car subway aircraft wheelchair scooter drone" speed="3.65" length="4.67" shape="154.14,3008.95 152.71,3008.77 151.99,3008.23 151.99,3007.34 152.71,3006.09"/>
    </edge>
    <edge id=":12087538865_0" function="internal">
        <lane id=":12087538865_0_0" index="0" disallow="tram rail_urban rail rail_electric rail_fast ship container cable_car subway aircraft wheelchair scooter drone" speed="6.40" length="9.04" shape="908.72,2545.40 908.16,2542.97 906.95,2541.34 905.10,2540.52 902.61,2540.50"/>
    </edge>
    <edge id=":12087538865_1" function="internal">
        <lane id=":12087538865_1_0" index="0" disallow="tram rail_urban rail rail_electric rail_fast ship container cable_car subway aircraft wheelchair scooter drone" speed="13.89" length="11.33" shape="908.72,2545.40 907.30,2534.16"/>
    </edge>
    <edge id=":12087538865_2" function="internal">
        <lane id=":12087538865_2_0" index="0" disallow="tram rail_urban rail rail_electric rail_fast ship container cable_car subway aircraft wheelchair scooter drone" speed="3.65" length="4.67" shape="908.72,2545.40 909.42,2544.14 910.18,2543.67 911.01,2544.00 911.91,2545.13"/>
    </edge>
    <edge id=":12087538865_3" function="internal">
        <lane id=":12087538865_3_0" index="0" disallow="tram rail_urban rail rail_electric rail_fast ship container cable_car subway aircraft wheelchair scooter drone" speed="6.68" length="9.27" shape="916.91,2538.63 914.54,2539.29 912.91,2540.60 912.04,2542.54 911.91,2545.13"/>
    </edge>
    <edge id=":12087538865_4" function="internal">
        <lane id=":12087538865_4_0" index="0" disallow="tram rail_urban rail rail_electric rail_fast ship container cable_car subway aircraft wheelchair scooter drone" speed="27.78" length="14.42" shape="916.91,2538.63 902.61,2540.50"/>
    </edge>
    <edge id=":12087538865_5" function="internal">
        <lane id=":12087538865_5_0" index="0" disallow="tram rail_urban rail rail_electric rail_fast ship container cable_car subway aircraft wheelchair scooter drone" speed="7.47" length="11.83" shape="916.91,2538.63 913.06,2538.76 910.17,2538.06 908.25,2536.52 907.30,2534.16"/>
    </edge>
    <edge id=":12087538865_6" function="internal">
        <lane id=":12087538865_6_0" index="0" disallow="tram rail_urban rail rail_electric rail_fast ship container cable_car subway aircraft wheelchair scooter drone" speed="13.89" length="11.57" shape="910.46,2533.65 911.91,2545.13"/>
    </edge>
    <edge id=":12087538865_7" function="internal">
        <lane id=":12087538865_7_0" index="0" disallow="tram rail_urban rail rail_electric rail_fast ship container cable_car subway aircraft wheelchair scooter drone" speed="7.27" length="11.80" shape="910.46,2533.65 910.33,2536.20 908.98,2538.19 906.40,2539.62 902.61,2540.50"/>
    </edge>
    <edge id=":12087538865_8" function="internal">
        <lane id=":12087538865_8_0" index="0" disallow="tram rail_urban rail rail_electric rail_fast ship container cable_car subway aircraft wheelchair scooter drone" speed="3.65" length="4.67" shape="910.46,2533.65 909.86,2534.96 909.14,2535.49 908.28,2535.22 907.30,2534.16"/>
    </edge>
    <edge id=":12087538866_0" function="internal">
        <lane id=":12087538866_0_0" index="0" disallow="tram rail_urban rail rail_electric rail_fast ship container cable_car subway aircraft wheelchair scooter drone" speed="6.03" length="7.88" shape="907.28,2534.06 907.44,2532.59 908.45,2531.43 910.33,2530.57 913.07,2530.03"/>
    </edge>
    <edge id=":12087538866_1" function="internal">
        <lane id=":12087538866_1_0" index="0" disallow="tram rail_urban rail rail_electric rail_fast ship container cable_car subway aircraft wheelchair scooter drone" speed="3.65" length="4.67" shape="907.28,2534.06 907.88,2532.75 908.61,2532.23 909.46,2532.49 910.44,2533.55"/>
    </edge>
    <edge id=":12087538866_2" function="internal">
        <lane id=":12087538866_2_0" index="0" disallow="tram rail_urban rail rail_electric rail_fast ship container cable_car subway aircraft wheelchair scooter drone" speed="27.78" length="9.40" shape="903.73,2531.13 913.07,2530.03"/>
    </edge>
    <edge id=":12087538866_3" function="internal">
        <lane id=":12087538866_3_0" index="0" disallow="tram rail_urban rail rail_electric rail_fast ship container cable_car subway aircraft wheelchair scooter drone" speed="6.23" length="7.83" shape="903.73,2531.13 906.47,2531.02 908.50,2531.38 909.82,2532.23 910.44,2533.55"/>
    </edge>
    <edge id=":12087538867_0" function="internal">
        <lane id=":12087538867_0_0" index="0" disallow="tram rail_urban rail rail_electric rail_fast ship container cable_car subway aircraft wheelchair scooter drone" speed="7.16" length="9.85" shape="192.04,2675.11 190.84,2672.53 189.23,2670.81 187.20,2669.96 184.75,2669.97"/>
    </edge>
    <edge id=":12087538867_1" function="internal">
        <lane id=":12087538867_1_0" index="0" disallow="tram rail_urban rail rail_electric rail_fast ship container cable_car subway aircraft wheelchair scooter drone" speed="3.65" length="4.67" shape="192.04,2675.11 192.43,2673.72 193.06,2673.09 193.95,2673.22 195.08,2674.11"/>
    </edge>
    <edge id=":12087538867_2" function="internal">
        <lane id=":12087538867_2_0" index="0" disallow="tram rail_urban rail rail_electric rail_fast ship container cable_car subway aircraft wheelchair scooter drone" speed="6.20" length="9.05" shape="199.03,2667.57 196.61,2668.34 195.15,2669.69 194.64,2671.61 195.08,2674.11"/>
    </edge>
    <edge id=":12087538867_3" function="internal">
        <lane id=":12087538867_3_0" index="0" disallow="tram rail_urban rail rail_electric rail_fast ship container cable_car subway aircraft wheelchair scooter drone" speed="27.78" length="14.47" shape="199.03,2667.57 184.75,2669.97"/>
    </edge>
    <edge id=":12087538868_0" function="internal">
        <lane id=":12087538868_0_0" index="0" disallow="tram rail_urban rail rail_electric rail_fast ship container cable_car subway aircraft wheelchair scooter drone" speed="6.48" length="9.03" shape="287.20,2963.00 286.01,2960.82 284.42,2959.55 282.41,2959.19 280.00,2959.75"/>
    </edge>
    <edge id=":12087538868_1" function="internal">
        <lane id=":12087538868_1_0" index="0" disallow="tram rail_urban rail rail_electric rail_fast ship container cable_car subway aircraft wheelchair scooter drone" speed="13.89" length="14.66" shape="287.20,2963.00 282.35,2949.16"/>
    </edge>
    <edge id=":12087538868_2" function="internal">
        <lane id=":12087538868_2_0" index="0" disallow="tram rail_urban rail rail_electric rail_fast ship container cable_car subway aircraft wheelchair scooter drone" speed="8.08" length="14.37" shape="287.20,2963.00 286.38,2959.18 286.98,2955.99 289.01,2953.44 292.47,2951.52"/>
    </edge>
    <edge id=":12087538868_3" function="internal">
        <lane id=":12087538868_3_0" index="0" disallow="tram rail_urban rail rail_electric rail_fast ship container cable_car subway aircraft wheelchair scooter drone" speed="3.65" length="4.67" shape="287.20,2963.00 287.53,2961.59 288.14,2960.94 289.03,2961.04 290.20,2961.88"/>
    </edge>
    <edge id=":12087538868_4" function="internal">
        <lane id=":12087538868_4_0" index="0" disallow="tram rail_urban rail rail_electric rail_fast ship container cable_car subway aircraft wheelchair scooter drone" speed="6.61" length="9.25" shape="293.62,2954.50 291.39,2955.74 290.07,2957.39 289.67,2959.43 290.20,2961.88"/>
    </edge>
    <edge id=":12087538868_5" function="internal">
        <lane id=":12087538868_5_0" index="0" disallow="tram rail_urban rail rail_electric rail_fast ship container cable_car subway aircraft wheelchair scooter drone" speed="13.89" length="14.60" shape="293.62,2954.50 280.00,2959.75"/>
    </edge>
    <edge id=":12087538868_6" function="internal">
        <lane id=":12087538868_6_0" index="0" disallow="tram rail_urban rail rail_electric rail_fast ship container cable_car subway aircraft wheelchair scooter drone" speed="7.91" length="4.11" shape="293.62,2954.50 289.75,2955.39 289.62,2955.36"/>
    </edge>
    <edge id=":12087538868_7" function="internal">
        <lane id=":12087538868_7_0" index="0" disallow="tram rail_urban rail rail_electric rail_fast ship container cable_car subway aircraft wheelchair scooter drone" speed="3.65" length="1.44" shape="293.62,2954.50 292.21,2954.19"/>
    </edge>
    <edge id=":12087538868_16" function="internal">
        <lane id=":12087538868_16_0" index="0" disallow="tram rail_urban rail rail_electric rail_fast ship container cable_car subway aircraft wheelchair scooter drone" speed="7.91" length="10.28" shape="289.62,2955.36 286.59,2954.79 284.12,2952.72 282.35,2949.16"/>
    </edge>
    <edge id=":12087538868_17" function="internal">
        <lane id=":12087538868_17_0" index="0" disallow="tram rail_urban rail rail_electric rail_fast ship container cable_car subway aircraft wheelchair scooter drone" speed="3.65" length="3.23" shape="292.21,2954.19 291.55,2953.58 291.64,2952.69 292.47,2951.52"/>
    </edge>
    <edge id=":12087538868_8" function="internal">
        <lane id=":12087538868_8_0" index="0" disallow="tram rail_urban rail rail_electric rail_fast ship container cable_car subway aircraft wheelchair scooter drone" speed="6.40" length="9.04" shape="285.39,2948.16 286.50,2950.39 288.05,2951.70 290.04,2952.07 292.47,2951.52"/>
    </edge>
    <edge id=":12087538868_9" function="internal">
        <lane id=":12087538868_9_0" index="0" disallow="tram rail_urban rail rail_electric rail_fast ship container cable_car subway aircraft wheelchair scooter drone" speed="13.89" length="14.54" shape="285.39,2948.16 290.20,2961.88"/>
    </edge>
    <edge id=":12087538868_10" function="internal">
        <lane id=":12087538868_10_0" index="0" disallow="tram rail_urban rail rail_electric rail_fast ship container cable_car subway aircraft wheelchair scooter drone" speed="8.21" length="14.42" shape="285.39,2948.16 286.10,2952.05 285.43,2955.28 283.40,2957.84 280.00,2959.75"/>
    </edge>
    <edge id=":12087538868_11" function="internal">
        <lane id=":12087538868_11_0" index="0" disallow="tram rail_urban rail rail_electric rail_fast ship container cable_car subway aircraft wheelchair scooter drone" speed="3.65" length="4.67" shape="285.39,2948.16 285.01,2949.55 284.37,2950.18 283.49,2950.05 282.35,2949.16"/>
    </edge>
    <edge id=":12087538868_12" function="internal">
        <lane id=":12087538868_12_0" index="0" disallow="tram rail_urban rail rail_electric rail_fast ship container cable_car subway aircraft wheelchair scooter drone" speed="6.75" length="9.44" shape="278.85,2956.76 281.07,2955.52 282.39,2953.83 282.82,2951.72 282.35,2949.16"/>
    </edge>
    <edge id=":12087538868_13" function="internal">
        <lane id=":12087538868_13_0" index="0" disallow="tram rail_urban rail rail_electric rail_fast ship container cable_car subway aircraft wheelchair scooter drone" speed="13.89" length="14.60" shape="278.85,2956.76 292.47,2951.52"/>
    </edge>
    <edge id=":12087538868_14" function="internal">
        <lane id=":12087538868_14_0" index="0" disallow="tram rail_urban rail rail_electric rail_fast ship container cable_car subway aircraft wheelchair scooter drone" speed="7.98" length="4.08" shape="278.85,2956.76 282.66,2955.89 282.82,2955.92"/>
    </edge>
    <edge id=":12087538868_15" function="internal">
        <lane id=":12087538868_15_0" index="0" disallow="tram rail_urban rail rail_electric rail_fast ship container cable_car subway aircraft wheelchair scooter drone" speed="3.65" length="1.44" shape="278.85,2956.76 280.25,2957.08"/>
    </edge>
    <edge id=":12087538868_18" function="internal">
        <lane id=":12087538868_18_0" index="0" disallow="tram rail_urban rail rail_electric rail_fast ship container cable_car subway aircraft wheelchair scooter drone" speed="7.98" length="10.16" shape="282.82,2955.92 285.82,2956.45 288.33,2958.45 290.20,2961.88"/>
    </edge>
    <edge id=":12087538868_19" function="internal">
        <lane id=":12087538868_19_0" index="0" disallow="tram rail_urban rail rail_electric rail_fast ship container cable_car subway aircraft wheelchair scooter drone" speed="3.65" length="3.23" shape="280.25,2957.08 280.92,2957.68 280.83,2958.57 280.00,2959.75"/>
    </edge>
    <edge id=":12087552877_0" function="internal">
        <lane id=":12087552877_0_0" index="0" disallow="tram rail_urban rail rail_electric rail_fast ship container cable_car subway aircraft wheelchair scooter drone" speed="6.60" length="10.17" shape="895.13,3009.00 892.71,3008.27 890.63,3008.72 888.88,3010.34 887.47,3013.14"/>
    </edge>
    <edge id=":12087552877_1" function="internal">
        <lane id=":12087552877_1_0" index="0" disallow="tram rail_urban rail rail_electric rail_fast ship container cable_car subway aircraft wheelchair scooter drone" speed="13.89" length="15.29" shape="895.13,3009.00 891.62,3007.59 887.87,3006.73 884.03,3006.37 880.23,3006.46"/>
    </edge>
    <edge id=":12087552877_2" function="internal">
        <lane id=":12087552877_2_0" index="0" disallow="tram rail_urban rail rail_electric rail_fast ship container cable_car subway aircraft wheelchair scooter drone" speed="8.42" length="14.39" shape="895.13,3009.00 891.78,3006.73 889.80,3004.00 889.18,3000.81 889.93,2997.16"/>
    </edge>
    <edge id=":12087552877_3" function="internal">
        <lane id=":12087552877_3_0" index="0" disallow="tram rail_urban rail rail_electric rail_fast ship container cable_car subway aircraft wheelchair scooter drone" speed="3.65" length="4.67" shape="895.13,3009.00 894.42,3007.74 894.42,3006.85 895.14,3006.31 896.57,3006.14"/>
    </edge>
    <edge id=":12087552877_4" function="internal">
        <lane id=":12087552877_4_0" index="0" disallow="tram rail_urban rail rail_electric rail_fast ship container cable_car subway aircraft wheelchair scooter drone" speed="7.00" length="9.66" shape="892.93,2998.26 892.46,3000.66 892.91,3002.78 894.28,3004.60 896.57,3006.14"/>
    </edge>
    <edge id=":12087552877_5" function="internal">
        <lane id=":12087552877_5_0" index="0" disallow="tram rail_urban rail rail_electric rail_fast ship container cable_car subway aircraft wheelchair scooter drone" speed="13.89" length="15.85" shape="892.93,2998.26 887.47,3013.14"/>
    </edge>
    <edge id=":12087552877_6" function="internal">
        <lane id=":12087552877_6_0" index="0" disallow="tram rail_urban rail rail_electric rail_fast ship container cable_car subway aircraft wheelchair scooter drone" speed="10.24" length="3.95" shape="892.93,2998.26 891.12,3001.54 890.97,3001.68"/>
    </edge>
    <edge id=":12087552877_7" function="internal">
        <lane id=":12087552877_7_0" index="0" disallow="tram rail_urban rail rail_electric rail_fast ship container cable_car subway aircraft wheelchair scooter drone" speed="3.65" length="1.44" shape="892.93,2998.26 891.77,2999.11"/>
    </edge>
    <edge id=":12087552877_16" function="internal">
        <lane id=":12087552877_16_0" index="0" disallow="tram rail_urban rail rail_electric rail_fast ship container cable_car subway aircraft wheelchair scooter drone" speed="10.24" length="12.06" shape="890.97,3001.68 888.40,3004.00 884.77,3005.64 880.23,3006.46"/>
    </edge>
    <edge id=":12087552877_17" function="internal">
        <lane id=":12087552877_17_0" index="0" disallow="tram rail_urban rail rail_electric rail_fast ship container cable_car subway aircraft wheelchair scooter drone" speed="3.65" length="3.23" shape="891.77,2999.11 890.88,2999.21 890.26,2998.56 889.93,2997.16"/>
    </edge>
    <edge id=":12087552877_8" function="internal">
        <lane id=":12087552877_8_0" index="0" disallow="tram rail_urban rail rail_electric rail_fast ship container cable_car subway aircraft wheelchair scooter drone" speed="9.06" length="12.36" shape="879.97,3003.27 883.57,3002.65 886.43,3001.42 888.55,2999.59 889.93,2997.16"/>
    </edge>
    <edge id=":12087552877_9" function="internal">
        <lane id=":12087552877_9_0" index="0" disallow="tram rail_urban rail rail_electric rail_fast ship container cable_car subway aircraft wheelchair scooter drone" speed="13.89" length="17.01" shape="879.97,3003.27 884.04,3003.23 888.47,3003.71 892.80,3004.68 896.57,3006.14"/>
    </edge>
    <edge id=":12087552877_10" function="internal">
        <lane id=":12087552877_10_0" index="0" disallow="tram rail_urban rail rail_electric rail_fast ship container cable_car subway aircraft wheelchair scooter drone" speed="7.46" length="16.21" shape="879.97,3003.27 884.74,3003.54 887.58,3005.27 888.49,3008.47 887.47,3013.14"/>
    </edge>
    <edge id=":12087552877_11" function="internal">
        <lane id=":12087552877_11_0" index="0" disallow="tram rail_urban rail rail_electric rail_fast ship container cable_car subway aircraft wheelchair scooter drone" speed="3.65" length="4.67" shape="879.97,3003.27 881.23,3003.97 881.69,3004.74 881.36,3005.57 880.23,3006.46"/>
    </edge>