<?xml version="1.0" encoding="UTF-8"?>

<!-- generated on 2026-03-21 14:44:37 by Eclipse SUMO netconvert Version 1.22.0
<netconvertConfiguration xmlns:xsi="http://www.w3.org/2001/XMLSchema-instance" xsi:noNamespaceSchemaLocation="http://sumo.dlr.de/xsd/netconvertConfiguration.xsd">

    <input>
        <osm-files value="map.osm"/>
    </input>

    <output>
        <output-file value="net.xml"/>
    </output>

    <projection>
        <proj.utm value="true"/>
    </projection>

    <processing>
        <geometry.remove value="true"/>
    </processing>

    <tls_building>
        <tls.discard-simple value="true"/>
        <tls.join value="true"/>
        <tls.guess-signals value="true"/>
    </tls_building>

    <ramp_guessing>
        <ramps.guess value="true"/>
    </ramp_guessing>

    <edge_removal>
        <remove-edges.isolated value="true"/>
    </edge_removal>

    <junctions>
        <junctions.join value="true"/>
    </junctions>

</netconvertConfiguration>
-->

<net version="1.20" junctionCornerDetail="5" limitTurnSpeed="5.50" xmlns:xsi="http://www.w3.org/2001/XMLSchema-instance" xsi:noNamespaceSchemaLocation="http://sumo.dlr.de/xsd/net_file.xsd">

    <location netOffset="-408129.03,-3378286.95" convBoundary="0.00,0.00,3430.30,2249.73" origBoundary="104.042244,30.533577,104.077994,30.553912" projParameter="+proj=utm +zone=48 +ellps=WGS84 +datum=WGS84 +units=m +no_defs"/>

    <type id="highway.cycleway" priority="1" numLanes="1" speed="5.56" allow="bicycle" oneway="0" width="2.00"/>
    <type id="highway.footway" priority="1" numLanes="1" speed="2.78" allow="pedestrian" oneway="1" width="2.00"/>
    <type id="highway.primary" priority="12" numLanes="2" speed="27.78" disallow="tram rail_urban rail rail_electric rail_fast ship container cable_car subway aircraft wheelchair scooter drone" oneway="0"/>
    <type id="highway.residential" priority="3" numLanes="1" speed="13.89" disallow="tram rail_urban rail rail_electric rail_fast ship container cable_car subway aircraft wheelchair scooter drone" oneway="0"/>
    <type id="highway.service" priority="1" numLanes="1" speed="5.56" allow="pedestrian delivery bicycle" oneway="0"/>
    <type id="highway.tertiary" priority="10" numLanes="1" speed="22.22" disallow="tram rail_urban rail rail_electric rail_fast ship container cable_car subway aircraft wheelchair scooter drone" oneway="0"/>
    <type id="highway.unclassified" priority="4" numLanes="1" speed="13.89" disallow="tram rail_urban rail rail_electric rail_fast ship container cable_car subway aircraft wheelchair scooter drone" oneway="0"/>

    <edge id=":12231175150_0" function="internal">
        <lane id=":12231175150_0_0" index="0" disallow="tram rail_urban rail rail_electric rail_fast ship container cable_car subway aircraft wheelchair scooter drone" speed="22.22" length="12.06" shape="2294.71,229.68 2284.03,224.07"/>
    </edge>
    <edge id=":12231175150_1" function="internal">
        <lane id=":12231175150_1_0" index="0" allow="bicycle" speed="6.83" length="1.39" width="2.00" shape="2294.99,229.15 2293.81,228.42"/>
    </edge>
    <edge id=":12231175150_7" function="internal">
        <lane id=":12231175150_7_0" index="0" allow="bicycle" speed="6.83" length="17.24" width="2.00" shape="2293.81,228.42 2289.54,225.76 2288.09,223.39 2290.64,222.07 2297.20,221.78"/>
    </edge>
    <edge id=":12231175150_2" function="internal">
        <lane id=":12231175150_2_0" index="0" allow="bicycle" speed="4.15" length="6.36" width="2.00" shape="2297.14,223.78 2294.93,223.88 2294.08,224.34 2294.60,225.15 2296.48,226.32"/>
    </edge>
    <edge id=":12231175150_3" function="internal">
        <lane id=":12231175150_3_0" index="0" allow="bicycle" speed="13.89" length="13.65" width="2.00" shape="2297.14,223.78 2293.57,224.18 2290.24,225.01 2287.01,225.44 2283.76,224.61"/>
    </edge>
    <edge id=":12231175150_4" function="internal">
        <lane id=":12231175150_4_0" index="0" allow="bicycle" speed="2.89" length="2.92" width="2.00" shape="2297.14,223.78 2296.41,223.26 2296.17,222.75 2296.43,222.26 2297.20,221.78"/>
    </edge>
    <edge id=":12231175150_5" function="internal">
        <lane id=":12231175150_5_0" index="0" allow="bicycle" speed="13.89" length="11.62" width="2.00" shape="2285.80,220.71 2288.75,221.84 2291.29,222.07 2293.93,221.88 2297.20,221.78"/>
    </edge>
    <edge id=":12231175150_6" function="internal">
        <lane id=":12231175150_6_0" index="0" disallow="tram rail_urban rail rail_electric rail_fast ship container cable_car subway aircraft wheelchair scooter drone" speed="22.22" length="12.06" shape="2285.52,221.24 2296.20,226.85"/>
    </edge>
    <edge id=":12231175166_0" function="internal">
        <lane id=":12231175166_0_0" index="0" allow="bicycle" speed="2.89" length="2.92" width="2.00" shape="2594.59,565.84 2594.69,566.73 2594.47,567.25 2593.93,567.38 2593.06,567.13"/>
    </edge>
    <edge id=":12847211803_0" function="internal">
        <lane id=":12847211803_0_0" index="0" disallow="tram rail_urban rail rail_electric rail_fast ship container cable_car subway aircraft wheelchair scooter drone" speed="3.65" length="4.67" shape="3009.78,378.30 3011.22,378.45 3011.94,378.97 3011.96,379.86 3011.28,381.13"/>
    </edge>
    <edge id=":1900833875_0" function="internal">
        <lane id=":1900833875_0_0" index="0" disallow="pedestrian tram rail_urban rail rail_electric rail_fast ship container cable_car subway aircraft wheelchair scooter drone" speed="27.78" length="8.27" width="4.00" shape="2360.88,257.89 2360.53,255.44 2359.70,253.85 2358.88,252.26 2358.54,249.81"/>
        <lane id=":1900833875_0_1" index="1" disallow="pedestrian tram rail_urban rail rail_electric rail_fast ship container cable_car subway aircraft wheelchair scooter drone" speed="27.78" length="8.27" width="4.00" shape="2364.38,257.95 2364.11,255.53 2363.45,253.93 2362.80,252.32 2362.54,249.90"/>
        <lane id=":1900833875_0_2" index="2" disallow="pedestrian tram rail_urban rail rail_electric rail_fast ship container cable_car subway aircraft wheelchair scooter drone" speed="27.78" length="8.27" width="4.00" shape="2367.88,258.01 2367.69,255.62 2367.20,254.00 2366.72,252.39 2366.54,250.00"/>
        <lane id=":1900833875_0_3" index="3" disallow="pedestrian tram rail_urban rail rail_electric rail_fast ship container cable_car subway aircraft wheelchair scooter drone" speed="27.78" length="8.27" width="4.00" shape="2371.38,258.07 2371.26,255.70 2370.95,254.08 2370.64,252.46 2370.54,250.09"/>
    </edge>
    <edge id=":1900833876_0" function="internal">
        <lane id=":1900833876_0_0" index="0" disallow="pedestrian tram rail_urban rail rail_electric rail_fast ship container cable_car subway aircraft wheelchair scooter drone" speed="27.78" length="8.24" width="3.50" shape="2394.46,268.99 2394.57,271.37 2394.88,272.99 2395.19,274.61 2395.31,276.99"/>
        <lane id=":1900833876_0_1" index="1" disallow="pedestrian tram rail_urban rail rail_electric rail_fast ship container cable_car subway aircraft wheelchair scooter drone" speed="27.78" length="8.24" width="3.50" shape="2390.46,268.91 2390.65,271.31 2391.13,272.92 2391.62,274.53 2391.81,276.93"/>
        <lane id=":1900833876_0_2" index="2" disallow="pedestrian tram rail_urban rail rail_electric rail_fast ship container cable_car subway aircraft wheelchair scooter drone" speed="27.78" length="8.24" width="3.50" shape="2386.46,268.83 2386.72,271.25 2387.38,272.85 2388.04,274.45 2388.31,276.87"/>
        <lane id=":1900833876_0_3" index="3" disallow="pedestrian tram rail_urban rail rail_electric rail_fast ship container cable_car subway aircraft wheelchair scooter drone" speed="27.78" length="8.24" width="3.50" shape="2382.46,268.75 2382.80,271.19 2383.63,272.78 2384.46,274.37 2384.81,276.81"/>
        <lane id=":1900833876_0_4" index="4" disallow="pedestrian tram rail_urban rail rail_electric rail_fast ship container cable_car subway aircraft wheelchair scooter drone" speed="27.78" length="8.24" width="3.50" shape="2382.46,268.75 2382.26,271.13 2381.88,272.75 2381.51,274.36 2381.31,276.74"/>
    </edge>
    <edge id=":2133189767_0" function="internal">
        <lane id=":2133189767_0_0" index="0" disallow="pedestrian tram rail_urban rail rail_electric rail_fast ship container cable_car subway aircraft wheelchair scooter drone" speed="6.29" length="8.30" width="3.50" shape="2348.86,480.65 2350.86,480.31 2352.31,479.25 2353.20,477.48 2353.53,475.00"/>
        <lane id=":2133189767_0_1" index="1" disallow="pedestrian tram rail_urban rail rail_electric rail_fast ship container cable_car subway aircraft wheelchair scooter drone" speed="7.19" length="11.15" width="3.50" shape="2348.86,480.65 2352.40,480.32 2354.93,479.28 2356.48,477.53 2357.03,475.06"/>
    </edge>
    <edge id=":2133189767_2" function="internal">
        <lane id=":2133189767_2_0" index="0" disallow="tram rail_urban rail rail_electric rail_fast ship container cable_car subway aircraft wheelchair scooter drone" speed="22.22" length="23.58" shape="2348.86,480.65 2372.44,480.88"/>
    </edge>
    <edge id=":2133189767_3" function="internal">
        <lane id=":2133189767_3_0" index="0" disallow="pedestrian tram rail_urban rail rail_electric rail_fast ship container cable_car subway aircraft wheelchair scooter drone" speed="27.78" length="11.25" width="3.50" shape="2353.33,486.25 2353.53,475.00"/>
        <lane id=":2133189767_3_1" index="1" disallow="pedestrian tram rail_urban rail rail_electric rail_fast ship container cable_car subway aircraft wheelchair scooter drone" speed="27.78" length="11.25" width="3.50" shape="2356.83,486.31 2357.03,475.06"/>
        <lane id=":2133189767_3_2" index="2" disallow="pedestrian tram rail_urban rail rail_electric rail_fast ship container cable_car subway aircraft wheelchair scooter drone" speed="27.78" length="11.25" width="3.50" shape="2360.33,486.37 2360.52,475.12"/>
        <lane id=":2133189767_3_3" index="3" disallow="pedestrian tram rail_urban rail rail_electric rail_fast ship container cable_car subway aircraft wheelchair scooter drone" speed="27.78" length="11.25" width="3.50" shape="2363.83,486.44 2364.02,475.19"/>
        <lane id=":2133189767_3_4" index="4" disallow="pedestrian tram rail_urban rail rail_electric rail_fast ship container cable_car subway aircraft wheelchair scooter drone" speed="27.78" length="11.25" width="3.50" shape="2367.32,486.50 2367.52,475.25"/>
    </edge>
    <edge id=":2133189767_8" function="internal">
        <lane id=":2133189767_8_0" index="0" disallow="pedestrian tram rail_urban rail rail_electric rail_fast ship container cable_car subway aircraft wheelchair scooter drone" speed="6.42" length="8.65" shape="2367.32,486.50 2367.68,484.01 2368.65,482.25 2370.24,481.20 2372.44,480.88"/>
    </edge>
    <edge id=":3015488915_0" function="internal">
        <lane id=":3015488915_0_0" index="0" disallow="tram rail_urban rail rail_electric rail_fast ship container cable_car subway aircraft wheelchair scooter drone" speed="6.51" length="9.06" shape="2329.00,480.38 2331.46,480.08 2333.23,479.05 2334.31,477.31 2334.70,474.85"/>
        <lane id=":3015488915_0_1" index="1" disallow="tram rail_urban rail rail_electric rail_fast ship container cable_car subway aircraft wheelchair scooter drone" speed="7.33" length="11.76" shape="2329.00,480.38 2332.86,480.10 2335.63,479.10 2337.31,477.36 2337.90,474.90"/>
    </edge>
    <edge id=":3015488915_2" function="internal">
        <lane id=":3015488915_2_0" index="0" disallow="tram rail_urban rail rail_electric rail_fast ship container cable_car subway aircraft wheelchair scooter drone" speed="22.22" length="19.66" shape="2329.00,480.38 2348.66,480.65"/>
    </edge>
    <edge id=":3015488915_3" function="internal">
        <lane id=":3015488915_3_0" index="0" disallow="tram rail_urban rail rail_electric rail_fast ship container cable_car subway aircraft wheelchair scooter drone" speed="13.89" length="11.39" shape="2334.52,486.09 2334.70,474.85"/>
        <lane id=":3015488915_3_1" index="1" disallow="tram rail_urban rail rail_electric rail_fast ship container cable_car subway aircraft wheelchair scooter drone" speed="13.89" length="11.39" shape="2337.72,486.14 2337.90,474.90"/>
        <lane id=":3015488915_3_2" index="2" disallow="tram rail_urban rail rail_electric rail_fast ship container cable_car subway aircraft wheelchair scooter drone" speed="13.89" length="11.39" shape="2340.92,486.19 2341.10,474.95"/>
        <lane id=":3015488915_3_3" index="3" disallow="tram rail_urban rail rail_electric rail_fast ship container cable_car subway aircraft wheelchair scooter drone" speed="13.89" length="11.39" shape="2340.92,486.19 2341.47,482.80 2342.61,480.59 2343.74,478.39 2344.30,475.00"/>
    </edge>
    <edge id=":3015488915_7" function="internal">
        <lane id=":3015488915_7_0" index="0" disallow="tram rail_urban rail rail_electric rail_fast ship container cable_car subway aircraft wheelchair scooter drone" speed="6.24" length="8.17" shape="2344.12,486.24 2344.43,483.78 2345.30,482.03 2346.71,480.98 2348.66,480.65"/>
    </edge>
    <edge id=":3015488918_0" function="internal">
        <lane id=":3015488918_0_0" index="0" disallow="pedestrian tram rail_urban rail rail_electric rail_fast ship container cable_car subway aircraft wheelchair scooter drone" speed="6.58" length="9.15" shape="2391.79,475.57 2392.10,478.03 2393.15,479.79 2394.93,480.88 2397.43,481.27"/>
    </edge>
    <edge id=":3015488918_1" function="internal">
        <lane id=":3015488918_1_0" index="0" disallow="pedestrian tram rail_urban rail rail_electric rail_fast ship container cable_car subway aircraft wheelchair scooter drone" speed="27.78" length="11.23" width="3.50" shape="2391.79,475.57 2391.58,486.80"/>
        <lane id=":3015488918_1_1" index="1" disallow="pedestrian tram rail_urban rail rail_electric rail_fast ship container cable_car subway aircraft wheelchair scooter drone" speed="27.78" length="11.23" width="3.50" shape="2388.29,475.51 2388.09,486.74"/>
        <lane id=":3015488918_1_2" index="2" disallow="pedestrian tram rail_urban rail rail_electric rail_fast ship container cable_car subway aircraft wheelchair scooter drone" speed="27.78" length="11.23" width="3.50" shape="2384.79,475.45 2384.59,486.67"/>
        <lane id=":3015488918_1_3" index="3" disallow="pedestrian tram rail_urban rail rail_electric rail_fast ship container cable_car subway aircraft wheelchair scooter drone" speed="27.78" length="11.23" width="3.50" shape="2381.29,475.39 2381.09,486.61"/>
        <lane id=":3015488918_1_4" index="4" disallow="pedestrian tram rail_urban rail rail_electric rail_fast ship container cable_car subway aircraft wheelchair scooter drone" speed="27.78" length="11.23" width="3.50" shape="2377.79,475.33 2377.59,486.55"/>
    </edge>
    <edge id=":3015488918_6" function="internal">
        <lane id=":3015488918_6_0" index="0" disallow="tram rail_urban rail rail_electric rail_fast ship container cable_car subway aircraft wheelchair scooter drone" speed="22.22" length="24.80" shape="2372.64,480.88 2397.43,481.27"/>
    </edge>
    <edge id=":3015488918_7" function="internal">
        <lane id=":3015488918_7_0" index="0" disallow="pedestrian tram rail_urban rail rail_electric rail_fast ship container cable_car subway aircraft wheelchair scooter drone" speed="8.10" length="14.63" width="3.50" shape="2372.64,480.88 2377.90,481.30 2381.65,482.40 2383.88,484.20 2384.59,486.67"/>
        <lane id=":3015488918_7_1" index="1" disallow="pedestrian tram rail_urban rail rail_electric rail_fast ship container cable_car subway aircraft wheelchair scooter drone" speed="7.25" length="11.51" width="3.50" shape="2372.64,480.88 2376.37,481.28 2379.03,482.37 2380.60,484.14 2381.09,486.61"/>
        <lane id=":3015488918_7_2" index="2" disallow="pedestrian tram rail_urban rail rail_electric rail_fast ship container cable_car subway aircraft wheelchair scooter drone" speed="6.35" length="8.59" width="3.50" shape="2372.64,480.88 2374.84,481.26 2376.40,482.33 2377.32,484.09 2377.59,486.55"/>
    </edge>
    <edge id=":3015524298_0" function="internal">
        <lane id=":3015524298_0_0" index="0" disallow="tram rail_urban rail rail_electric rail_fast ship container cable_car subway aircraft wheelchair scooter drone" speed="13.89" length="8.10" shape="2344.85,243.05 2344.39,240.80 2343.31,239.41 2342.25,238.01 2341.80,235.76"/>
        <lane id=":3015524298_0_1" index="1" disallow="tram rail_urban rail rail_electric rail_fast ship container cable_car subway aircraft wheelchair scooter drone" speed="13.89" length="8.10" shape="2348.05,243.11 2347.59,240.86 2346.51,239.47 2345.45,238.08 2345.00,235.84"/>
    </edge>
    <edge id=":4203902596_0" function="internal">
        <lane id=":4203902596_0_0" index="0" disallow="tram rail_urban rail rail_electric rail_fast ship container cable_car subway aircraft wheelchair scooter drone" speed="3.65" length="4.67" shape="1846.80,1.43 1846.09,0.17 1846.10,-0.72 1846.81,-1.26 1848.25,-1.43"/>
    </edge>
    <edge id=":4203902597_0" function="internal">
        <lane id=":4203902597_0_0" index="0" disallow="tram rail_urban rail rail_electric rail_fast ship container cable_car subway aircraft wheelchair scooter drone" speed="5.59" length="8.67" shape="2332.51,245.92 2335.07,246.90 2336.92,246.76 2338.04,245.51 2338.45,243.15"/>
        <lane id=":4203902597_0_1" index="1" disallow="tram rail_urban rail rail_electric rail_fast ship container cable_car subway aircraft wheelchair scooter drone" speed="6.54" length="12.39" shape="2332.51,245.92 2336.46,247.53 2339.30,247.61 2341.03,246.17 2341.65,243.20"/>
    </edge>
    <edge id=":4203902597_2" function="internal">
        <lane id=":4203902597_2_0" index="0" disallow="tram rail_urban rail rail_electric rail_fast ship container cable_car subway aircraft wheelchair scooter drone" speed="3.65" length="4.67" shape="2332.51,245.92 2333.20,247.19 2333.18,248.08 2332.46,248.60 2331.02,248.75"/>
    </edge>
    <edge id=":4203902597_3" function="internal">
        <lane id=":4203902597_3_0" index="0" disallow="tram rail_urban rail rail_electric rail_fast ship container cable_car subway aircraft wheelchair scooter drone" speed="9.08" length="11.94" shape="2338.22,257.56 2337.80,255.14 2336.46,252.87 2334.20,250.74 2331.02,248.75"/>
    </edge>
    <edge id=":4203902597_4" function="internal">
        <lane id=":4203902597_4_0" index="0" disallow="tram rail_urban rail rail_electric rail_fast ship container cable_car subway aircraft wheelchair scooter drone" speed="13.89" length="14.76" shape="2341.42,257.61 2340.99,253.28 2339.93,250.38 2338.88,247.49 2338.45,243.15"/>
        <lane id=":4203902597_4_1" index="1" disallow="tram rail_urban rail rail_electric rail_fast ship container cable_car subway aircraft wheelchair scooter drone" speed="13.89" length="14.76" shape="2344.62,257.66 2344.19,253.33 2343.13,250.43 2342.08,247.54 2341.65,243.20"/>
        <lane id=":4203902597_4_2" index="2" disallow="tram rail_urban rail rail_electric rail_fast ship container cable_car subway aircraft wheelchair scooter drone" speed="13.89" length="14.76" shape="2347.82,257.71 2347.39,253.38 2346.33,250.48 2345.28,247.59 2344.85,243.25"/>
        <lane id=":4203902597_4_3" index="3" disallow="tram rail_urban rail rail_electric rail_fast ship container cable_car subway aircraft wheelchair scooter drone" speed="13.89" length="14.76" shape="2347.82,257.71 2348.05,243.31"/>
    </edge>
    <edge id=":4772541247_0" function="internal">
        <lane id=":4772541247_0_0" index="0" disallow="tram rail_urban rail rail_electric rail_fast ship container cable_car subway aircraft wheelchair scooter drone" speed="13.89" length="13.24" shape="2489.50,214.52 2486.73,212.42 2484.14,210.64 2481.45,209.02 2478.38,207.38"/>
    </edge>
    <edge id=":4772541247_1" function="internal">
        <lane id=":4772541247_1_0" index="0" disallow="tram rail_urban rail rail_electric rail_fast ship container cable_car subway aircraft wheelchair scooter drone" speed="8.01" length="3.80" shape="2489.50,214.52 2486.88,211.78"/>
    </edge>
    <edge id=":4772541247_2" function="internal">
        <lane id=":4772541247_2_0" index="0" disallow="tram rail_urban rail rail_electric rail_fast ship container cable_car subway aircraft wheelchair scooter drone" speed="3.65" length="1.44" shape="2489.50,214.52 2489.05,213.15"/>
    </edge>
    <edge id=":4772541247_9" function="internal">
        <lane id=":4772541247_9_0" index="0" disallow="tram rail_urban rail rail_electric rail_fast ship container cable_car subway aircraft wheelchair scooter drone" speed="8.01" length="10.11" shape="2486.88,211.78 2485.73,208.84 2486.06,205.70 2487.87,202.36"/>
    </edge>
    <edge id=":4772541247_10" function="internal">
        <lane id=":4772541247_10_0" index="0" disallow="tram rail_urban rail rail_electric rail_fast ship container cable_car subway aircraft wheelchair scooter drone" speed="3.65" length="3.23" shape="2489.05,213.15 2489.23,212.27 2490.04,211.89 2491.48,212.00"/>
    </edge>
    <edge id=":4772541247_3" function="internal">
        <lane id=":4772541247_3_0" index="0" disallow="tram rail_urban rail rail_electric rail_fast ship container cable_car subway aircraft wheelchair scooter drone" speed="6.51" length="8.85" shape="2490.44,204.27 2489.29,206.39 2489.08,208.39 2489.81,210.26 2491.48,212.00"/>
    </edge>
    <edge id=":4772541247_4" function="internal">
        <lane id=":4772541247_4_0" index="0" disallow="tram rail_urban rail rail_electric rail_fast ship container cable_car subway aircraft wheelchair scooter drone" speed="8.40" length="13.73" shape="2490.44,204.27 2487.82,206.98 2484.94,208.40 2481.79,208.54 2478.38,207.38"/>
    </edge>
    <edge id=":4772541247_5" function="internal">
        <lane id=":4772541247_5_0" index="0" disallow="tram rail_urban rail rail_electric rail_fast ship container cable_car subway aircraft wheelchair scooter drone" speed="3.65" length="4.67" shape="2490.44,204.27 2489.08,204.76 2488.20,204.60 2487.79,203.80 2487.87,202.36"/>
    </edge>
    <edge id=":4772541247_6" function="internal">
        <lane id=":4772541247_6_0" index="0" disallow="tram rail_urban rail rail_electric rail_fast ship container cable_car subway aircraft wheelchair scooter drone" speed="6.97" length="9.17" shape="2479.83,204.53 2482.09,205.28 2484.18,205.17 2486.10,204.20 2487.87,202.36"/>
    </edge>
    <edge id=":4772541247_7" function="internal">
        <lane id=":4772541247_7_0" index="0" disallow="tram rail_urban rail rail_electric rail_fast ship container cable_car subway aircraft wheelchair scooter drone" speed="13.89" length="13.86" shape="2479.83,204.53 2482.98,206.22 2485.85,207.96 2488.63,209.85 2491.48,212.00"/>
    </edge>
    <edge id=":4772541247_8" function="internal">
        <lane id=":4772541247_8_0" index="0" disallow="tram rail_urban rail rail_electric rail_fast ship container cable_car subway aircraft wheelchair scooter drone" speed="3.65" length="1.44" shape="2479.83,204.53 2480.54,205.78"/>
    </edge>
    <edge id=":4772541247_11" function="internal">
        <lane id=":4772541247_11_0" index="0" disallow="tram rail_urban rail rail_electric rail_fast ship container cable_car subway aircraft wheelchair scooter drone" speed="3.65" length="3.23" shape="2480.54,205.78 2480.54,206.68 2479.82,207.21 2478.38,207.38"/>
    </edge>
    <edge id=":4772541250_0" function="internal">
        <lane id=":4772541250_0_0" index="0" disallow="tram rail_urban rail rail_electric rail_fast ship container cable_car subway aircraft wheelchair scooter drone" speed="3.65" length="4.67" shape="2511.93,97.92 2512.85,96.81 2513.69,96.49 2514.44,96.97 2515.12,98.25"/>
    </edge>
    <edge id=":4772541251_0" function="internal">
        <lane id=":4772541251_0_0" index="0" disallow="tram rail_urban rail rail_electric rail_fast ship container cable_car subway aircraft wheelchair scooter drone" speed="13.89" length="13.65" shape="2526.45,245.03 2524.02,242.46 2521.68,240.15 2519.23,237.96 2516.49,235.72"/>
    </edge>
    <edge id=":4772541251_1" function="internal">
        <lane id=":4772541251_1_0" index="0" disallow="tram rail_urban rail rail_electric rail_fast ship container cable_car subway aircraft wheelchair scooter drone" speed="7.91" length="3.97" shape="2526.45,245.03 2524.21,241.75"/>
    </edge>
    <edge id=":4772541251_2" function="internal">
        <lane id=":4772541251_2_0" index="0" disallow="tram rail_urban rail rail_electric rail_fast ship container cable_car subway aircraft wheelchair scooter drone" speed="3.65" length="1.44" shape="2526.45,245.03 2526.23,243.61"/>
    </edge>
    <edge id=":4772541251_9" function="internal">
        <lane id=":4772541251_9_0" index="0" disallow="tram rail_urban rail rail_electric rail_fast ship container cable_car subway aircraft wheelchair scooter drone" speed="7.91" length="10.42" shape="2524.21,241.75 2523.61,238.59 2524.64,235.53 2527.31,232.59"/>
    </edge>
    <edge id=":4772541251_10" function="internal">
        <lane id=":4772541251_10_0" index="0" disallow="tram rail_urban rail rail_electric rail_fast ship container cable_car subway aircraft wheelchair scooter drone" speed="3.65" length="3.23" shape="2526.23,243.61 2526.55,242.77 2527.41,242.53 2528.81,242.87"/>
    </edge>
    <edge id=":4772541251_3" function="internal">
        <lane id=":4772541251_3_0" index="0" disallow="tram rail_urban rail rail_electric rail_fast ship container cable_car subway aircraft wheelchair scooter drone" speed="6.40" length="9.04" shape="2529.35,235.06 2527.67,236.91 2527.03,238.82 2527.40,240.81 2528.81,242.87"/>
    </edge>
    <edge id=":4772541251_4" function="internal">
        <lane id=":4772541251_4_0" index="0" disallow="tram rail_urban rail rail_electric rail_fast ship container cable_car subway aircraft wheelchair scooter drone" speed="8.67" length="14.08" shape="2529.35,235.06 2526.05,237.17 2522.80,237.98 2519.62,237.50 2516.49,235.72"/>
    </edge>
    <edge id=":4772541251_5" function="internal">
        <lane id=":4772541251_5_0" index="0" disallow="tram rail_urban rail rail_electric rail_fast ship container cable_car subway aircraft wheelchair scooter drone" speed="3.65" length="4.67" shape="2529.35,235.06 2527.92,235.21 2527.10,234.85 2526.90,233.97 2527.31,232.59"/>
    </edge>
    <edge id=":4772541251_6" function="internal">
        <lane id=":4772541251_6_0" index="0" disallow="tram rail_urban rail rail_electric rail_fast ship container cable_car subway aircraft wheelchair scooter drone" speed="7.28" length="9.69" shape="2518.47,233.20 2520.58,234.39 2522.76,234.68 2525.00,234.08 2527.31,232.59"/>
    </edge>
    <edge id=":4772541251_7" function="internal">
        <lane id=":4772541251_7_0" index="0" disallow="tram rail_urban rail rail_electric rail_fast ship container cable_car subway aircraft wheelchair scooter drone" speed="13.89" length="14.18" shape="2518.47,233.20 2521.27,235.49 2523.85,237.81 2526.32,240.24 2528.81,242.87"/>
    </edge>
    <edge id=":4772541251_8" function="internal">
        <lane id=":4772541251_8_0" index="0" disallow="tram rail_urban rail rail_electric rail_fast ship container cable_car subway aircraft wheelchair scooter drone" speed="3.65" length="1.44" shape="2518.47,233.20 2518.92,234.57"/>
    </edge>
    <edge id=":4772541251_11" function="internal">
        <lane id=":4772541251_11_0" index="0" disallow="tram rail_urban rail rail_electric rail_fast ship container cable_car subway aircraft wheelchair scooter drone" speed="3.65" length="3.23" shape="2518.92,234.57 2518.74,235.45 2517.93,235.83 2516.49,235.72"/>
    </edge>
    <edge id=":4772541254_0" function="internal">
        <lane id=":4772541254_0_0" index="0" disallow="tram rail_urban rail rail_electric rail_fast ship container cable_car subway aircraft wheelchair scooter drone" speed="3.65" length="4.67" shape="2787.51,182.90 2788.95,182.84 2789.74,183.26 2789.89,184.14 2789.39,185.49"/>
    </edge>
    <edge id=":5719222610_0" function="internal">
        <lane id=":5719222610_0_0" index="0" disallow="tram rail_urban rail rail_electric rail_fast ship container cable_car subway aircraft wheelchair scooter drone" speed="3.65" length="4.67" shape="2413.33,59.80 2412.13,59.00 2411.73,58.20 2412.13,57.40 2413.34,56.60"/>
    </edge>
    <edge id=":6235770293_0" function="internal">
        <lane id=":6235770293_0_0" index="0" disallow="tram rail_urban rail rail_electric rail_fast ship container cable_car subway aircraft wheelchair scooter drone" speed="3.65" length="4.67" shape="3126.68,1032.57 3125.28,1032.22 3124.64,1031.60 3124.75,1030.72 3125.61,1029.56"/>
    </edge>
    <edge id=":6242841650_0" function="internal">
        <lane id=":6242841650_0_0" index="0" disallow="tram rail_urban rail rail_electric rail_fast ship container cable_car subway aircraft wheelchair scooter drone" speed="7.21" length="9.74" shape="2215.06,472.08 2215.83,474.75 2217.15,476.68 2219.00,477.85 2221.39,478.28"/>
    </edge>
    <edge id=":6242841650_1" function="internal">
        <lane id=":6242841650_1_0" index="0" disallow="tram rail_urban rail rail_electric rail_fast ship container cable_car subway aircraft wheelchair scooter drone" speed="3.65" length="4.67" shape="2215.06,472.08 2214.47,473.40 2213.74,473.92 2212.89,473.66 2211.90,472.60"/>
    </edge>
    <edge id=":6242841650_2" function="internal">
        <lane id=":6242841650_2_0" index="0" disallow="tram rail_urban rail rail_electric rail_fast ship container cable_car subway aircraft wheelchair scooter drone" speed="6.33" length="9.04" shape="2207.11,478.72 2209.56,478.17 2211.17,476.96 2211.95,475.11 2211.90,472.60"/>
    </edge>
    <edge id=":6242841650_3" function="internal">